<?xml version="1.0" encoding="UTF-8"?>

<!-- generated on Sa 06 Feb 2021 17:40:14 CET by Eclipse SUMO GUI Version v1_8_0+0713-53914b0267
-->

<configuration xmlns:xsi="http://www.w3.org/2001/XMLSchema-instance" xsi:noNamespaceSchemaLocation="http://sumo.dlr.de/xsd/sumoConfiguration.xsd">

    <input>
        <net-file value="complex.net.xml"/>
        <route-files value="complex001.rou.xml"/>
        <additional-files value="complex.add.xml"/>
    </input>

</configuration>
