<?xml version="1.0" encoding="UTF-8"?>

<!-- generated on Mo 01 Mär 2021 12:42:24 CET by Eclipse SUMO netedit Version 1.8.0
<configuration xmlns:xsi="http://www.w3.org/2001/XMLSchema-instance" xsi:noNamespaceSchemaLocation="http://sumo.dlr.de/xsd/netconvertConfiguration.xsd">

    <input>
        <sumo-net-file value="/home/sd/catkin_ws/src/adore/test/tracks/complex/complex.net.xml"/>
    </input>

    <output>
        <output-file value="/home/sd/catkin_ws/src/adore/test/tracks/complex/complex.net.xml"/>
    </output>

    <processing>
        <geometry.min-radius.fix.railways value="false"/>
        <geometry.max-grade.fix value="false"/>
        <offset.disable-normalization value="true"/>
        <lefthand value="false"/>
    </processing>

    <junctions>
        <no-internal-links value="false"/>
        <no-turnarounds value="true"/>
        <junctions.corner-detail value="5"/>
        <junctions.limit-turn-speed value="5.5"/>
        <rectangular-lane-cut value="true"/>
    </junctions>

    <pedestrian>
        <walkingareas value="false"/>
    </pedestrian>

    <report>
        <aggregate-warnings value="5"/>
    </report>

</configuration>
-->

<net version="1.6" junctionCornerDetail="5" rectangularLaneCut="true" limitTurnSpeed="5.50" xmlns:xsi="http://www.w3.org/2001/XMLSchema-instance" xsi:noNamespaceSchemaLocation="http://sumo.dlr.de/xsd/net_file.xsd">

    <location netOffset="50.00,50.00" convBoundary="-258.81,-121.49,428.13,312.07" origBoundary="-50.00,-50.00,50.00,49.99" projParameter="!"/>

    <type id="bidirectional" priority="1" speed="1.39" disallow="pedestrian tram rail_urban rail rail_electric rail_fast ship" width="3.65"/>
    <type id="border" priority="0" speed="1.39" disallow="all" discard="0" width="0.10"/>
    <type id="driving" priority="1" speed="13.89" disallow="pedestrian tram rail_urban rail rail_electric rail_fast ship" width="3.65"/>
    <type id="entry" priority="1" speed="22.22" disallow="pedestrian tram rail_urban rail rail_electric rail_fast ship" width="3.65"/>
    <type id="exit" priority="1" speed="22.22" disallow="pedestrian tram rail_urban rail rail_electric rail_fast ship" width="3.65"/>
    <type id="median" priority="0" speed="1.39" disallow="all" discard="0" width="0.10"/>
    <type id="mwyEntry" priority="1" speed="22.22" allow="private emergency authority army vip passenger hov taxi bus coach delivery truck trailer motorcycle evehicle custom1 custom2" width="3.65"/>
    <type id="mwyExit" priority="1" speed="22.22" allow="private emergency authority army vip passenger hov taxi bus coach delivery truck trailer motorcycle evehicle custom1 custom2" width="3.65"/>
    <type id="none" priority="0" speed="1.39" disallow="all" discard="0" width="1.00"/>
    <type id="offRamp" priority="1" speed="22.22" allow="private emergency authority army vip passenger hov taxi bus coach delivery truck trailer motorcycle evehicle custom1 custom2" width="3.65"/>
    <type id="onRamp" priority="1" speed="22.22" allow="private emergency authority army vip passenger hov taxi bus coach delivery truck trailer motorcycle evehicle custom1 custom2" width="3.65"/>
    <type id="parking" priority="1" speed="1.39" disallow="pedestrian tram rail_urban rail rail_electric rail_fast ship" width="2.50"/>
    <type id="ped" allow="pedestrian"/>
    <type id="rail" priority="3" speed="33.33" allow="rail_urban rail rail_electric rail_fast" width="3.65"/>
    <type id="restricted" priority="0" speed="13.89" disallow="all" width="3.65"/>
    <type id="roadWorks" priority="0" speed="1.39" allow="authority" width="3.65"/>
    <type id="shoulder" priority="0" speed="1.39" disallow="all" discard="0" width="1.00"/>
    <type id="special1" priority="1" speed="22.22" allow="custom1" discard="0" width="3.65"/>
    <type id="special2" priority="1" speed="22.22" allow="custom2" discard="0" width="3.65"/>
    <type id="special3" priority="1" speed="22.22" allow="custom1 custom2" discard="0" width="3.65"/>
    <type id="stop" priority="1" speed="13.89" disallow="pedestrian tram rail_urban rail rail_electric rail_fast ship" width="3.65"/>
    <type id="tram" priority="2" speed="13.89" allow="tram" width="3.65"/>

    <edge id=":1.1_0" function="internal">
        <lane id=":1.1_0_0" index="0" disallow="pedestrian tram rail_urban rail rail_electric rail_fast ship" speed="7.79" length="10.91" width="4.00" shape="54.75,-11.98 55.20,-9.45 56.51,-7.40 58.68,-5.83 61.72,-4.74"/>
    </edge>
    <edge id=":1.1_1" function="internal">
        <lane id=":1.1_1_0" index="0" disallow="pedestrian tram rail_urban rail rail_electric rail_fast ship" speed="9.20" length="15.53" width="4.00" shape="51.55,-11.90 52.13,-7.91 53.84,-4.74 56.67,-2.40 60.63,-0.89"/>
    </edge>
    <edge id=":1.1_2" function="internal">
        <lane id=":1.1_2_0" index="0" disallow="pedestrian tram rail_urban rail rail_electric rail_fast ship" speed="7.28" length="9.75" shape="39.41,-4.98 41.93,-5.81 43.73,-7.21 44.80,-9.18 45.15,-11.72"/>
    </edge>
    <edge id=":1.1_3" function="internal">
        <lane id=":1.1_3_0" index="0" disallow="pedestrian tram rail_urban rail rail_electric rail_fast ship" speed="13.89" length="22.57" width="4.00" shape="39.41,-4.98 45.67,-6.05 50.61,-6.44 55.52,-6.04 61.72,-4.74"/>
    </edge>
    <edge id=":1.1_4" function="internal">
        <lane id=":1.1_4_0" index="0" disallow="pedestrian tram rail_urban rail rail_electric rail_fast ship" speed="8.94" length="6.76" shape="39.73,-0.97 43.52,-2.26 45.64,-4.02"/>
    </edge>
    <edge id=":1.1_5" function="internal">
        <lane id=":1.1_5_0" index="0" disallow="pedestrian tram rail_urban rail rail_electric rail_fast ship" speed="13.89" length="21.17" width="4.00" shape="39.73,-0.97 45.77,-2.07 50.22,-2.51 54.65,-2.16 60.63,-0.89"/>
    </edge>
    <edge id=":1.1_6" function="internal">
        <lane id=":1.1_6_0" index="0" disallow="pedestrian tram rail_urban rail rail_electric rail_fast ship" speed="8.94" length="8.48" shape="45.64,-4.02 46.22,-4.49 47.83,-7.68 48.35,-11.81"/>
    </edge>
    <edge id=":1.157.08_0" function="internal">
        <lane id=":1.157.08_0_0" index="0" disallow="pedestrian tram rail_urban rail rail_electric rail_fast ship" speed="7.42" length="9.88" shape="60.64,104.97 58.05,105.85 56.19,107.27 55.06,109.23 54.67,111.74"/>
    </edge>
    <edge id=":1.157.08_1" function="internal">
        <lane id=":1.157.08_1_0" index="0" disallow="pedestrian tram rail_urban rail rail_electric rail_fast ship" speed="13.89" length="22.58" width="4.00" shape="60.64,104.97 54.39,106.06 49.46,106.36 44.54,105.91 38.29,104.75"/>
    </edge>
    <edge id=":1.157.08_2" function="internal">
        <lane id=":1.157.08_2_0" index="0" disallow="pedestrian tram rail_urban rail rail_electric rail_fast ship" speed="9.03" length="6.77" shape="60.25,100.97 56.44,102.31 54.32,104.04"/>
    </edge>
    <edge id=":1.157.08_3" function="internal">
        <lane id=":1.157.08_3_0" index="0" disallow="pedestrian tram rail_urban rail rail_electric rail_fast ship" speed="13.89" length="21.34" width="4.00" shape="60.25,100.97 54.19,102.08 49.70,102.41 45.20,101.99 39.15,100.85"/>
    </edge>
    <edge id=":1.157.08_6" function="internal">
        <lane id=":1.157.08_6_0" index="0" disallow="pedestrian tram rail_urban rail rail_electric rail_fast ship" speed="9.03" length="8.41" shape="54.32,104.04 53.71,104.54 52.05,107.68 51.47,111.71"/>
    </edge>
    <edge id=":1.157.08_4" function="internal">
        <lane id=":1.157.08_4_0" index="0" disallow="pedestrian tram rail_urban rail rail_electric rail_fast ship" speed="7.51" length="10.59" width="4.00" shape="45.07,111.65 44.66,109.15 43.40,107.17 41.27,105.70 38.29,104.75"/>
    </edge>
    <edge id=":1.157.08_5" function="internal">
        <lane id=":1.157.08_5_0" index="0" disallow="pedestrian tram rail_urban rail rail_electric rail_fast ship" speed="8.99" length="15.55" width="4.00" shape="48.27,111.68 47.73,107.64 46.03,104.49 43.17,102.23 39.15,100.85"/>
    </edge>
    <edge id=":gneJ104_0" function="internal">
        <lane id=":gneJ104_0_0" index="0" speed="50.00" length="41.28" shape="-118.76,213.26 -112.35,214.09 -101.98,215.44 -89.74,216.66 -77.69,217.14"/>
    </edge>
    <edge id=":gneJ104_1" function="internal">
        <lane id=":gneJ104_1_0" index="0" speed="50.00" length="44.25" shape="-121.86,216.30 -77.69,217.14"/>
        <lane id=":gneJ104_1_1" index="1" speed="50.00" length="44.25" shape="-121.90,219.50 -77.66,220.34"/>
        <lane id=":gneJ104_1_2" index="2" speed="50.00" length="44.25" shape="-121.94,222.70 -77.63,223.54"/>
    </edge>
    <edge id=":gneJ104_w0" function="walkingarea">
        <lane id=":gneJ104_w0_0" index="0" allow="pedestrian" speed="1.00" length="29.92" width="3.20" shape="-77.62,225.14 -77.65,221.94 -77.65,221.94 -77.68,218.74 -77.68,218.74 -77.71,215.54 -118.60,211.67 -118.92,214.85 -121.84,214.70 -121.88,217.90 -121.88,217.90 -121.92,221.10 -121.92,221.10 -121.95,224.30"/>
    </edge>
    <edge id=":gneJ105_0" function="internal">
        <lane id=":gneJ105_0_0" index="0" speed="31.95" length="16.07" shape="228.18,214.30 233.38,214.40 237.36,214.64 240.77,214.76 244.24,214.51"/>
    </edge>
    <edge id=":gneJ105_1" function="internal">
        <lane id=":gneJ105_1_0" index="0" speed="50.00" length="16.03" shape="228.18,214.30 244.24,214.05"/>
        <lane id=":gneJ105_1_1" index="1" speed="50.00" length="16.03" shape="228.22,217.50 244.25,217.25"/>
        <lane id=":gneJ105_1_2" index="2" speed="50.00" length="16.03" shape="228.26,220.70 244.26,220.45"/>
    </edge>
    <edge id=":gneJ105_w0" function="walkingarea">
        <lane id=":gneJ105_w0_0" index="0" allow="pedestrian" speed="1.00" length="8.29" width="3.20" shape="244.28,222.05 244.24,218.85 244.27,218.85 244.23,215.65 244.25,215.65 244.22,212.45 244.46,216.10 244.02,212.93 244.45,216.44 244.03,213.26 228.17,212.70 228.20,215.90 228.21,215.90 228.23,219.10 228.24,219.10 228.27,222.30"/>
    </edge>
    <edge id=":gneJ109_w0" function="walkingarea">
        <lane id=":gneJ109_w0_0" index="0" allow="pedestrian" speed="1.00" length="3.66" width="3.20" shape="260.90,210.59 261.34,213.76 261.50,214.25 262.97,217.09 266.49,210.01 269.98,210.09 271.37,210.84 270.67,212.26 267.87,214.34"/>
    </edge>
    <edge id=":gneJ11_0" function="internal">
        <lane id=":gneJ11_0_0" index="0" allow="pedestrian" speed="10.55" length="18.12" width="2.00" shape="169.68,-34.62 168.16,-38.12 165.32,-40.92 161.16,-43.03 155.68,-44.43"/>
    </edge>
    <edge id=":gneJ11_1" function="internal">
        <lane id=":gneJ11_1_0" index="0" allow="bicycle" speed="11.20" length="20.48" width="2.00" shape="171.63,-35.06 169.90,-39.15 166.72,-42.40 162.09,-44.82 156.02,-46.40"/>
    </edge>
    <edge id=":gneJ11_2" function="internal">
        <lane id=":gneJ11_2_0" index="0" allow="bicycle" speed="9.52" length="25.43" width="2.00" shape="171.63,-35.06 170.98,-42.52 172.90,-47.71 177.38,-50.61 184.42,-51.23"/>
    </edge>
    <edge id=":gneJ11_3" function="internal">
        <lane id=":gneJ11_3_0" index="0" disallow="pedestrian" speed="6.92" length="13.87" shape="174.17,-35.63 172.97,-37.67 170.66,-37.99 167.26,-36.59 162.75,-33.47"/>
    </edge>
    <edge id=":gneJ11_4" function="internal">
        <lane id=":gneJ11_4_0" index="0" disallow="pedestrian" speed="12.06" length="23.55" shape="174.17,-35.63 172.16,-40.48 168.54,-44.32 163.31,-47.14 156.46,-48.96"/>
    </edge>
    <edge id=":gneJ11_5" function="internal">
        <lane id=":gneJ11_5_0" index="0" disallow="pedestrian" speed="8.63" length="20.30" shape="174.17,-35.63 173.63,-41.63 175.14,-45.80 178.68,-48.13 184.26,-48.64"/>
    </edge>
    <edge id=":gneJ11_6" function="internal">
        <lane id=":gneJ11_6_0" index="0" allow="pedestrian" speed="4.45" length="4.93" width="2.00" shape="183.78,-40.85 182.59,-40.70 181.86,-40.06 181.59,-38.94 181.78,-37.34"/>
    </edge>
    <edge id=":gneJ11_7" function="internal">
        <lane id=":gneJ11_7_0" index="0" allow="pedestrian" speed="13.89" length="28.35" width="2.00" shape="183.78,-40.85 175.39,-41.45 169.66,-42.07 163.97,-42.98 155.68,-44.43"/>
    </edge>
    <edge id=":gneJ11_8" function="internal">
        <lane id=":gneJ11_8_0" index="0" allow="bicycle" speed="5.78" length="3.24" width="2.00" shape="183.90,-42.85 181.59,-42.61 180.85,-42.06"/>
    </edge>
    <edge id=":gneJ11_9" function="internal">
        <lane id=":gneJ11_9_0" index="0" allow="bicycle" speed="13.89" length="28.13" width="2.00" shape="183.90,-42.85 175.58,-43.44 169.90,-44.06 164.25,-44.97 156.02,-46.40"/>
    </edge>
    <edge id=":gneJ11_10" function="internal">
        <lane id=":gneJ11_10_0" index="0" disallow="pedestrian" speed="7.26" length="3.63" shape="184.06,-45.44 180.44,-45.10"/>
    </edge>
    <edge id=":gneJ11_11" function="internal">
        <lane id=":gneJ11_11_0" index="0" disallow="pedestrian" speed="13.89" length="3.71" shape="184.06,-45.44 180.37,-45.10"/>
    </edge>
    <edge id=":gneJ11_12" function="internal">
        <lane id=":gneJ11_12_0" index="0" disallow="pedestrian" speed="13.89" length="27.85" shape="184.06,-45.44 175.82,-46.03 170.20,-46.64 164.61,-47.54 156.46,-48.96"/>
    </edge>
    <edge id=":gneJ11_23" function="internal">
        <lane id=":gneJ11_23_0" index="0" allow="bicycle" speed="5.78" length="5.62" width="2.00" shape="180.85,-42.06 180.14,-41.53 179.55,-39.63 179.83,-36.90"/>
    </edge>
    <edge id=":gneJ11_24" function="internal">
        <lane id=":gneJ11_24_0" index="0" disallow="pedestrian" speed="7.26" length="10.35" shape="180.44,-45.10 180.29,-45.08 177.90,-43.44 176.90,-40.53 177.29,-36.33"/>
    </edge>
    <edge id=":gneJ11_25" function="internal">
        <lane id=":gneJ11_25_0" index="0" disallow="pedestrian" speed="13.89" length="21.77" shape="180.37,-45.10 176.69,-44.76 171.78,-42.06 167.68,-38.06 162.75,-33.47"/>
    </edge>
    <edge id=":gneJ11_13" function="internal">
        <lane id=":gneJ11_13_0" index="0" allow="pedestrian" speed="13.89" length="27.11" width="2.00" shape="157.78,-56.65 165.68,-55.27 171.10,-54.40 176.55,-53.80 184.55,-53.23"/>
        <lane id=":gneJ11_13_1" index="1" allow="bicycle" speed="13.89" length="27.11" width="2.00" shape="157.45,-54.68 165.41,-53.29 170.87,-52.41 176.37,-51.80 184.42,-51.23"/>
    </edge>
    <edge id=":gneJ11_15" function="internal">
        <lane id=":gneJ11_15_0" index="0" allow="bicycle" speed="13.60" length="17.36" width="2.00" shape="157.45,-54.68 166.02,-52.34 172.60,-48.59 173.20,-47.92"/>
    </edge>
    <edge id=":gneJ11_16" function="internal">
        <lane id=":gneJ11_16_0" index="0" disallow="pedestrian" speed="13.89" length="27.50" shape="157.01,-52.12 165.05,-50.71 170.57,-49.83 176.12,-49.21 184.26,-48.64"/>
    </edge>
    <edge id=":gneJ11_17" function="internal">
        <lane id=":gneJ11_17_0" index="0" disallow="pedestrian" speed="12.97" length="10.61" shape="157.01,-52.12 164.80,-50.01 167.01,-48.78"/>
    </edge>
    <edge id=":gneJ11_18" function="internal">
        <lane id=":gneJ11_18_0" index="0" disallow="pedestrian" speed="7.94" length="6.19" shape="157.01,-52.12 162.44,-49.74 162.57,-49.52"/>
    </edge>
    <edge id=":gneJ11_26" function="internal">
        <lane id=":gneJ11_26_0" index="0" allow="bicycle" speed="13.60" length="13.06" width="2.00" shape="173.20,-47.92 177.21,-43.45 179.83,-36.90"/>
    </edge>
    <edge id=":gneJ11_27" function="internal">
        <lane id=":gneJ11_27_0" index="0" disallow="pedestrian" speed="12.97" length="16.73" shape="167.01,-48.78 170.78,-46.68 174.95,-42.12 177.29,-36.33"/>
    </edge>
    <edge id=":gneJ11_28" function="internal">
        <lane id=":gneJ11_28_0" index="0" disallow="pedestrian" speed="7.94" length="15.56" shape="162.57,-49.52 165.00,-45.60 164.51,-40.69 160.77,-35.98"/>
    </edge>
    <edge id=":gneJ11_19" function="internal">
        <lane id=":gneJ11_19_0" index="0" allow="bicycle" speed="4.98" length="7.59" width="2.00" shape="156.43,-41.48 158.30,-43.28 158.86,-44.70 158.10,-45.74 156.02,-46.40"/>
    </edge>
    <edge id=":gneJ11_20" function="internal">
        <lane id=":gneJ11_20_0" index="0" disallow="pedestrian" speed="6.10" length="12.16" shape="156.81,-41.01 159.87,-43.94 160.83,-46.24 159.70,-47.91 156.46,-48.96"/>
    </edge>
    <edge id=":gneJ11_21" function="internal">
        <lane id=":gneJ11_21_0" index="0" disallow="pedestrian" speed="7.02" length="16.65" shape="158.79,-38.49 162.58,-42.25 163.45,-45.25 161.41,-47.48 156.46,-48.96"/>
    </edge>
    <edge id=":gneJ11_22" function="internal">
        <lane id=":gneJ11_22_0" index="0" disallow="pedestrian" speed="13.89" length="28.35" shape="158.79,-38.49 164.16,-42.81 169.34,-46.21 175.61,-48.28 184.26,-48.64"/>
    </edge>
    <edge id=":gneJ11_w1" function="walkingarea">
        <lane id=":gneJ11_w1_0" index="0" allow="pedestrian" speed="1.00" length="4.04" width="2.00" shape="180.80,-37.12 182.76,-37.56 183.72,-39.86 183.84,-41.85 182.60,-41.79 181.65,-41.44 181.00,-40.80 180.64,-39.86 180.58,-38.64"/>
    </edge>
    <edge id=":gneJ11_w2" function="walkingarea">
        <lane id=":gneJ11_w2_0" index="0" allow="pedestrian" speed="1.00" length="26.98" width="2.00" shape="184.49,-52.23 184.61,-54.23 157.95,-57.64 157.61,-55.67 163.30,-54.67 167.51,-53.94 170.99,-53.40 174.48,-52.99 178.73,-52.62"/>
    </edge>
    <edge id=":gneJ111_0" function="internal">
        <lane id=":gneJ111_0_0" index="0" speed="24.48" length="19.86" shape="68.74,231.38 62.24,231.83 57.19,232.90 53.14,234.37 49.64,236.01"/>
    </edge>
    <edge id=":gneJ111_1" function="internal">
        <lane id=":gneJ111_1_0" index="0" speed="50.00" length="20.18" shape="68.72,228.19 48.53,228.02"/>
        <lane id=":gneJ111_1_1" index="1" speed="50.00" length="20.18" shape="68.70,224.99 48.53,224.82"/>
    </edge>
    <edge id=":gneJ111_w0" function="walkingarea">
        <lane id=":gneJ111_w0_0" index="0" allow="pedestrian" speed="1.00" length="14.93" width="3.20" shape="68.75,232.98 68.73,229.79 68.73,229.79 68.71,226.59 68.71,226.59 68.69,223.39 48.53,223.22 48.53,226.42 48.53,226.42 48.53,229.62 48.53,229.62 48.53,232.82 48.94,234.57 50.34,237.45 64.69,233.05 61.66,233.25 59.19,233.69 56.79,234.46 54.00,235.68"/>
    </edge>
    <edge id=":gneJ112_0" function="internal">
        <lane id=":gneJ112_0_0" index="0" speed="13.89" length="0.13" shape="22.18,273.86 22.16,273.98"/>
    </edge>
    <edge id=":gneJ113_0" function="internal">
        <lane id=":gneJ113_0_0" index="0" speed="13.89" length="0.55" shape="22.16,293.12 22.17,293.29 22.19,293.40 22.23,293.51 22.30,293.66"/>
    </edge>
    <edge id=":gneJ114_0" function="internal">
        <lane id=":gneJ114_0_0" index="0" speed="13.89" length="0.50" shape="39.06,309.70 39.19,309.77 39.28,309.80 39.38,309.83 39.53,309.85"/>
    </edge>
    <edge id=":gneJ116_0" function="internal">
        <lane id=":gneJ116_0_0" index="0" speed="13.89" length="0.47" shape="77.50,305.43 77.63,305.38 77.71,305.33 77.79,305.27 77.90,305.18"/>
    </edge>
    <edge id=":gneJ117_0" function="internal">
        <lane id=":gneJ117_0_0" index="0" speed="13.89" length="0.46" shape="88.04,284.75 88.07,284.62 88.08,284.53 88.09,284.44 88.08,284.30"/>
    </edge>
    <edge id=":gneJ118_0" function="internal">
        <lane id=":gneJ118_0_0" index="0" speed="13.89" length="0.23" shape="87.25,265.86 87.25,265.79 87.25,265.75 87.24,265.70 87.23,265.64"/>
    </edge>
    <edge id=":gneJ119_0" function="internal">
        <lane id=":gneJ119_0_0" index="0" speed="13.89" length="0.38" shape="83.51,246.17 83.49,246.06 83.47,245.98 83.44,245.91 83.39,245.80"/>
    </edge>
    <edge id=":gneJ12_0" function="internal">
        <lane id=":gneJ12_0_0" index="0" disallow="pedestrian" speed="6.21" length="9.12" shape="44.97,-58.98 44.71,-62.24 43.96,-64.48 42.72,-65.70 40.98,-65.89"/>
    </edge>
    <edge id=":gneJ12_1" function="internal">
        <lane id=":gneJ12_1_0" index="0" disallow="pedestrian" speed="8.36" length="17.64" shape="48.17,-58.99 48.84,-64.05 50.89,-67.40 54.32,-69.03 59.13,-68.94"/>
    </edge>
    <edge id=":gneJ12_2" function="internal">
        <lane id=":gneJ12_2_0" index="0" allow="bicycle" speed="13.89" length="16.89" width="2.00" shape="58.15,-63.22 53.21,-64.02 49.78,-64.31 46.34,-64.07 41.40,-63.32"/>
    </edge>
    <edge id=":gneJ12_3" function="internal">
        <lane id=":gneJ12_3_0" index="0" disallow="pedestrian" speed="6.17" length="1.97" shape="58.59,-65.78 56.82,-65.62 56.68,-65.49"/>
    </edge>
    <edge id=":gneJ12_4" function="internal">
        <lane id=":gneJ12_4_0" index="0" disallow="pedestrian" speed="6.94" length="3.40" shape="58.59,-65.78 55.42,-65.83 55.21,-65.73"/>
    </edge>
    <edge id=":gneJ12_5" function="internal">
        <lane id=":gneJ12_5_0" index="0" disallow="pedestrian" speed="13.89" length="17.75" shape="58.59,-65.78 53.40,-66.63 49.79,-66.92 46.18,-66.68 40.98,-65.89"/>
    </edge>
    <edge id=":gneJ12_10" function="internal">
        <lane id=":gneJ12_10_0" index="0" disallow="pedestrian" speed="6.17" length="7.09" shape="56.68,-65.49 55.56,-64.44 54.81,-62.24 54.57,-59.01"/>
    </edge>
    <edge id=":gneJ12_11" function="internal">
        <lane id=":gneJ12_11_0" index="0" disallow="pedestrian" speed="6.94" length="8.40" shape="55.21,-65.73 53.16,-64.71 51.81,-62.44 51.37,-59.00"/>
    </edge>
    <edge id=":gneJ12_6" function="internal">
        <lane id=":gneJ12_6_0" index="0" allow="bicycle" speed="13.89" length="19.25" width="2.00" shape="40.05,-71.61 45.81,-72.49 49.82,-72.76 53.82,-72.44 59.57,-71.50"/>
        <lane id=":gneJ12_6_1" index="1" disallow="pedestrian" speed="13.89" length="19.25" shape="40.47,-69.05 45.98,-69.88 49.81,-70.15 53.63,-69.83 59.13,-68.94"/>
    </edge>
    <edge id=":gneJ12_8" function="internal">
        <lane id=":gneJ12_8_0" index="0" disallow="pedestrian" speed="9.01" length="8.53" shape="40.47,-69.05 46.62,-69.28 48.86,-68.46"/>
    </edge>
    <edge id=":gneJ12_9" function="internal">
        <lane id=":gneJ12_9_0" index="0" disallow="pedestrian" speed="8.39" length="6.48" shape="40.47,-69.05 45.22,-69.08 46.77,-68.32"/>
    </edge>
    <edge id=":gneJ12_12" function="internal">
        <lane id=":gneJ12_12_0" index="0" disallow="pedestrian" speed="9.01" length="11.95" shape="48.86,-68.46 51.02,-67.68 53.67,-64.26 54.57,-59.01"/>
    </edge>
    <edge id=":gneJ12_13" function="internal">
        <lane id=":gneJ12_13_0" index="0" disallow="pedestrian" speed="8.39" length="11.10" shape="46.77,-68.32 48.62,-67.42 50.67,-64.06 51.37,-59.00"/>
    </edge>
    <edge id=":gneJ12_w1" function="walkingarea">
        <lane id=":gneJ12_w1_0" index="0" allow="pedestrian" speed="1.00" length="20.18" width="2.00" shape="59.74,-72.49 60.08,-74.46 39.57,-74.57 39.89,-72.60 44.09,-73.26 47.22,-73.65 49.82,-73.77 52.43,-73.62 55.56,-73.19"/>
    </edge>
    <edge id=":gneJ120_0" function="internal">
        <lane id=":gneJ120_0_0" index="0" speed="13.89" length="0.26" shape="59.13,192.62 59.02,192.38"/>
    </edge>
    <edge id=":gneJ14_0" function="internal">
        <lane id=":gneJ14_0_0" index="0" disallow="pedestrian" speed="6.88" length="13.85" shape="-62.39,-34.65 -66.88,-37.78 -70.26,-39.16 -72.54,-38.80 -73.72,-36.70"/>
    </edge>
    <edge id=":gneJ14_1" function="internal">
        <lane id=":gneJ14_1_0" index="0" disallow="pedestrian" speed="7.57" length="17.07" shape="-60.40,-37.16 -65.48,-40.50 -69.40,-41.54 -72.14,-40.27 -73.72,-36.70"/>
    </edge>
    <edge id=":gneJ14_2" function="internal">
        <lane id=":gneJ14_2_0" index="0" disallow="pedestrian" speed="7.93" length="21.78" shape="-60.40,-37.16 -64.12,-41.89 -64.58,-46.81 -61.99,-50.94 -56.53,-53.28"/>
    </edge>
    <edge id=":gneJ14_3" function="internal">
        <lane id=":gneJ14_3_0" index="0" allow="bicycle" speed="11.09" length="20.55" width="2.00" shape="-55.60,-47.55 -61.69,-46.01 -66.32,-43.60 -69.48,-40.31 -71.18,-36.16"/>
    </edge>
    <edge id=":gneJ14_4" function="internal">
        <lane id=":gneJ14_4_0" index="0" allow="bicycle" speed="13.89" length="28.37" width="2.00" shape="-55.60,-47.55 -83.69,-43.56"/>
    </edge>
    <edge id=":gneJ14_5" function="internal">
        <lane id=":gneJ14_5_0" index="0" disallow="pedestrian" speed="6.10" length="3.42" shape="-56.02,-50.12 -59.28,-49.10"/>
    </edge>
    <edge id=":gneJ14_6" function="internal">
        <lane id=":gneJ14_6_0" index="0" disallow="pedestrian" speed="7.02" length="4.30" shape="-56.02,-50.12 -60.15,-48.93"/>
    </edge>
    <edge id=":gneJ14_7" function="internal">
        <lane id=":gneJ14_7_0" index="0" disallow="pedestrian" speed="11.96" length="5.38" shape="-56.02,-50.12 -61.22,-48.78"/>
    </edge>
    <edge id=":gneJ14_8" function="internal">
        <lane id=":gneJ14_8_0" index="0" disallow="pedestrian" speed="13.89" length="28.24" shape="-56.02,-50.12 -83.98,-46.15"/>
    </edge>
    <edge id=":gneJ14_20" function="internal">
        <lane id=":gneJ14_20_0" index="0" disallow="pedestrian" speed="6.10" length="8.78" shape="-59.28,-49.10 -60.44,-47.43 -59.49,-45.12 -56.42,-42.17"/>
    </edge>
    <edge id=":gneJ14_21" function="internal">
        <lane id=":gneJ14_21_0" index="0" disallow="pedestrian" speed="7.02" length="12.42" shape="-60.15,-48.93 -61.01,-48.68 -63.07,-46.46 -62.21,-43.45 -58.41,-39.66"/>
    </edge>
    <edge id=":gneJ14_22" function="internal">
        <lane id=":gneJ14_22_0" index="0" disallow="pedestrian" speed="11.96" length="18.30" shape="-61.22,-48.78 -62.90,-48.34 -68.15,-45.51 -71.75,-41.63 -73.72,-36.70"/>
    </edge>
    <edge id=":gneJ14_9" function="internal">
        <lane id=":gneJ14_9_0" index="0" allow="bicycle" speed="13.89" length="27.96" width="2.00" shape="-84.63,-51.91 -56.95,-55.85"/>
    </edge>
    <edge id=":gneJ14_10" function="internal">
        <lane id=":gneJ14_10_0" index="0" allow="bicycle" speed="9.49" length="12.00" width="2.00" shape="-84.63,-51.91 -77.34,-51.65 -73.27,-49.29"/>
    </edge>
    <edge id=":gneJ14_11" function="internal">
        <lane id=":gneJ14_11_0" index="0" disallow="pedestrian" speed="13.89" length="28.08" shape="-84.33,-49.33 -56.53,-53.28"/>
    </edge>
    <edge id=":gneJ14_12" function="internal">
        <lane id=":gneJ14_12_0" index="0" disallow="pedestrian" speed="13.89" length="11.82" shape="-84.33,-49.33 -75.03,-49.76 -72.56,-49.39"/>
    </edge>
    <edge id=":gneJ14_13" function="internal">
        <lane id=":gneJ14_13_0" index="0" disallow="pedestrian" speed="13.89" length="9.66" shape="-84.33,-49.33 -75.59,-49.35 -74.71,-49.08"/>
    </edge>
    <edge id=":gneJ14_14" function="internal">
        <lane id=":gneJ14_14_0" index="0" disallow="pedestrian" speed="8.60" length="6.69" shape="-84.33,-49.33 -78.57,-49.11 -77.78,-48.64"/>
    </edge>
    <edge id=":gneJ14_23" function="internal">
        <lane id=":gneJ14_23_0" index="0" allow="bicycle" speed="9.49" length="13.88" width="2.00" shape="-73.27,-49.29 -72.68,-48.94 -70.62,-43.78 -71.18,-36.16"/>
    </edge>
    <edge id=":gneJ14_24" function="internal">
        <lane id=":gneJ14_24_0" index="0" disallow="pedestrian" speed="13.89" length="17.97" shape="-72.56,-49.39 -67.94,-48.68 -62.07,-46.14 -56.42,-42.17"/>
    </edge>
    <edge id=":gneJ14_25" function="internal">
        <lane id=":gneJ14_25_0" index="0" disallow="pedestrian" speed="13.89" length="19.07" shape="-74.71,-49.08 -69.15,-47.41 -63.83,-44.01 -58.41,-39.66"/>
    </edge>
    <edge id=":gneJ14_26" function="internal">
        <lane id=":gneJ14_26_0" index="0" disallow="pedestrian" speed="8.60" length="13.92" shape="-77.78,-48.64 -74.88,-46.94 -73.27,-42.80 -73.72,-36.70"/>
    </edge>
    <edge id=":gneJ14_15" function="internal">
        <lane id=":gneJ14_15_0" index="0" allow="bicycle" speed="5.72" length="8.86" width="2.00" shape="-79.40,-37.89 -79.17,-40.61 -79.81,-42.46 -81.31,-43.45 -83.69,-43.56"/>
    </edge>
    <edge id=":gneJ14_16" function="internal">
        <lane id=":gneJ14_16_0" index="0" allow="bicycle" speed="13.50" length="30.68" width="2.00" shape="-79.40,-37.89 -76.82,-44.57 -72.22,-49.79 -65.60,-53.55 -56.95,-55.85"/>
    </edge>
    <edge id=":gneJ14_17" function="internal">
        <lane id=":gneJ14_17_0" index="0" disallow="pedestrian" speed="7.22" length="14.13" shape="-76.85,-37.36 -76.52,-41.59 -77.60,-44.47 -80.08,-45.99 -83.98,-46.15"/>
    </edge>
    <edge id=":gneJ14_18" function="internal">
        <lane id=":gneJ14_18_0" index="0" disallow="pedestrian" speed="12.87" length="27.54" shape="-76.85,-37.36 -74.55,-43.25 -70.40,-47.87 -64.39,-51.21 -56.53,-53.28"/>
    </edge>
    <edge id=":gneJ14_19" function="internal">
        <lane id=":gneJ14_19_0" index="0" disallow="pedestrian" speed="8.92" length="24.21" shape="-76.85,-37.36 -74.55,-42.95 -70.71,-45.20 -65.33,-44.10 -58.41,-39.66"/>
    </edge>
    <edge id=":gneJ14_w1" function="walkingarea">
        <lane id=":gneJ14_w1_0" index="0" allow="pedestrian" speed="1.00" length="27.86" width="2.00" shape="-57.11,-56.83 -57.43,-58.81 -84.96,-54.89 -84.74,-52.91"/>
    </edge>
    <edge id=":gneJ14_w2" function="walkingarea">
        <lane id=":gneJ14_w2_0" index="0" allow="pedestrian" speed="1.00" length="3.89" width="2.00" shape="-83.57,-42.57 -83.35,-40.58 -82.33,-38.51 -80.38,-38.10 -80.18,-39.60 -80.27,-40.80 -80.65,-41.69 -81.33,-42.29 -82.31,-42.58"/>
    </edge>
    <edge id=":gneJ163_0" function="internal">
        <lane id=":gneJ163_0_0" index="0" speed="6.98" length="6.75" width="4.00" shape="378.51,49.38 380.23,49.72 381.66,50.46 382.80,51.61 383.64,53.15"/>
    </edge>
    <edge id=":gneJ163_1" function="internal">
        <lane id=":gneJ163_1_0" index="0" speed="4.46" length="2.25" width="4.00" shape="378.21,53.37 378.78,53.48 379.26,53.73 379.64,54.11 379.92,54.62"/>
    </edge>
    <edge id=":gneJ163_w0" function="walkingarea">