<?xml version="1.0" encoding="UTF-8"?>

<!-- generated on Mi 03 Feb 2021 21:32:33 CET by Eclipse SUMO netedit Version 1.8.0
<configuration xmlns:xsi="http://www.w3.org/2001/XMLSchema-instance" xsi:noNamespaceSchemaLocation="http://sumo.dlr.de/xsd/netconvertConfiguration.xsd">

    <input>
        <sumo-net-file value="/home/sd/catkin_ws/src/adore/test/tracks/complex/complex.net.xml"/>
    </input>

    <output>
        <output-file value="/home/sd/catkin_ws/src/adore/test/tracks/complex/complex.net.xml"/>
    </output>

    <processing>
        <geometry.min-radius.fix.railways value="false"/>
        <geometry.max-grade.fix value="false"/>
        <offset.disable-normalization value="true"/>
        <lefthand value="false"/>
    </processing>

    <junctions>
        <no-internal-links value="false"/>
        <no-turnarounds value="true"/>
        <junctions.corner-detail value="5"/>
        <junctions.limit-turn-speed value="5.5"/>
        <rectangular-lane-cut value="true"/>
    </junctions>

    <pedestrian>
        <walkingareas value="false"/>
    </pedestrian>

    <netedit>
        <route-files value="/home/sd/catkin_ws/src/adore/test/tracks/complex/complex.rou.xml"/>
    </netedit>

    <report>
        <aggregate-warnings value="5"/>
    </report>

</configuration>
-->

<routes xmlns:xsi="http://www.w3.org/2001/XMLSchema-instance" xsi:noNamespaceSchemaLocation="http://sumo.dlr.de/xsd/routes_file.xsd">
    <vType id="type1" length="5.00" minGap="2.00" maxSpeed="5.00" speedFactor="normc(1.00,0.00)" accel="1" decel="4.5" sigma="0.5"/>
    <vType id="type2" maxSpeed="15.00"/>
    <flow id="flow_0" type="type1" begin="0.00" end="50.00" number="200">
        <route edges="-gneE29" color="cyan"/>
    </flow>
    <flow id="flow_1" type="type1" begin="0.00" departLane="2" departPos="50.00" arrivalLane="2" end="50.00" number="10">
        <route edges="-gneE29" color="cyan"/>
    </flow>
    <flow id="flow_2" type="type1" begin="0.00" departLane="3" arrivalLane="3" end="50.00" number="10">
        <route edges="-gneE29" color="cyan"/>
    </flow>
</routes>
