<?xml version="1.0" encoding="UTF-8"?>

<!-- generated on Sa 06 Feb 2021 18:28:50 CET by Eclipse SUMO netedit Version 1.8.0
<configuration xmlns:xsi="http://www.w3.org/2001/XMLSchema-instance" xsi:noNamespaceSchemaLocation="http://sumo.dlr.de/xsd/netconvertConfiguration.xsd">

    <input>
        <sumo-net-file value="/home/sd/catkin_ws/src/adore/test/tracks/complex/complex.net.xml"/>
    </input>

    <output>
        <output-file value="/home/sd/catkin_ws/src/adore/test/tracks/complex/complex.net.xml"/>
    </output>

    <processing>
        <geometry.min-radius.fix.railways value="false"/>
        <geometry.max-grade.fix value="false"/>
        <offset.disable-normalization value="true"/>
        <lefthand value="false"/>
    </processing>

    <junctions>
        <no-internal-links value="false"/>
        <no-turnarounds value="true"/>
        <junctions.corner-detail value="5"/>
        <junctions.limit-turn-speed value="5.5"/>
        <rectangular-lane-cut value="true"/>
    </junctions>

    <pedestrian>
        <walkingareas value="false"/>
    </pedestrian>

    <netedit>
        <additional-files value="/home/sd/catkin_ws/src/adore/test/tracks/complex/complex.add.xml"/>
    </netedit>

    <report>
        <aggregate-warnings value="5"/>
    </report>

</configuration>
-->

<additional xmlns:xsi="http://www.w3.org/2001/XMLSchema-instance" xsi:noNamespaceSchemaLocation="http://sumo.dlr.de/xsd/additional_file.xsd">
    <parkingArea id="parkingArea_0" lane="gneE182_0" startPos="8.85" endPos="18.85" roadsideCapacity="10" onRoad="1" friendlyPos="1" length="29.88"/>
</additional>
