<?xml version="1.0" encoding="UTF-8"?>

<!-- generated on Sa 06 Feb 2021 17:38:17 CET by Eclipse SUMO netedit Version 1.8.0
<configuration xmlns:xsi="http://www.w3.org/2001/XMLSchema-instance" xsi:noNamespaceSchemaLocation="http://sumo.dlr.de/xsd/netconvertConfiguration.xsd">

    <input>
        <sumo-net-file value="/home/sd/catkin_ws/src/adore/test/tracks/complex/complex.net.xml"/>
    </input>

    <output>
        <output-file value="/home/sd/catkin_ws/src/adore/test/tracks/complex/complex.net.xml"/>
    </output>

    <processing>
        <geometry.min-radius.fix.railways value="false"/>
        <geometry.max-grade.fix value="false"/>
        <offset.disable-normalization value="true"/>
        <lefthand value="false"/>
    </processing>

    <junctions>
        <no-internal-links value="false"/>
        <no-turnarounds value="true"/>
        <junctions.corner-detail value="5"/>
        <junctions.limit-turn-speed value="5.5"/>
        <rectangular-lane-cut value="true"/>
    </junctions>

    <pedestrian>
        <walkingareas value="false"/>
    </pedestrian>

    <netedit>
        <additional-files value="/home/sd/catkin_ws/src/adore/test/tracks/complex/complex.add.xml"/>
        <route-files value="/home/sd/catkin_ws/src/adore/test/tracks/complex/complex001.rou.xml"/>
    </netedit>

    <report>
        <aggregate-warnings value="5"/>
    </report>

</configuration>
-->

<routes xmlns:xsi="http://www.w3.org/2001/XMLSchema-instance" xsi:noNamespaceSchemaLocation="http://sumo.dlr.de/xsd/routes_file.xsd">
    <trip id="vehicle_0" depart="0.00" arrivalLane="0" from="gneE36" to="gneE182" via="gneE179">
        <stop parkingArea="parkingArea_gneE182_0_0" duration="20.00"/>
        <stop parkingArea="parkingArea_gneE182_0_0" duration="20.00"/>
        <stop parkingArea="parkingArea_gneE182_0_0" duration="20.00"/>
    </trip>
</routes>
