<?xml version="1.0" encoding="UTF-8"?>

<!-- generated on Fr 05 Feb 2021 14:00:59 CET by Eclipse SUMO netedit Version 1.8.0
<configuration xmlns:xsi="http://www.w3.org/2001/XMLSchema-instance" xsi:noNamespaceSchemaLocation="http://sumo.dlr.de/xsd/netconvertConfiguration.xsd">

    <input>
        <sumo-net-file value="/home/sd/catkin_ws/src/adore/test/tracks/complex/complex.net.xml"/>
    </input>

    <output>
        <output-file value="/home/sd/catkin_ws/src/adore/test/tracks/complex/complex.net.xml"/>
    </output>

    <processing>
        <geometry.min-radius.fix.railways value="false"/>
        <geometry.max-grade.fix value="false"/>
        <offset.disable-normalization value="true"/>
        <lefthand value="false"/>
    </processing>

    <junctions>
        <no-internal-links value="false"/>
        <no-turnarounds value="true"/>
        <junctions.corner-detail value="5"/>
        <junctions.limit-turn-speed value="5.5"/>
        <rectangular-lane-cut value="true"/>
    </junctions>

    <pedestrian>
        <walkingareas value="false"/>
    </pedestrian>

    <netedit>
        <route-files value="/home/sd/catkin_ws/src/adore/test/tracks/complex/complex004_roff.rou.xml"/>
    </netedit>

    <report>
        <aggregate-warnings value="5"/>
    </report>

</configuration>
-->

<routes xmlns:xsi="http://www.w3.org/2001/XMLSchema-instance" xsi:noNamespaceSchemaLocation="http://sumo.dlr.de/xsd/routes_file.xsd">
    <vType id="DEFAULT_VEHTYPE" minGap="2.00" vClass="passenger"/>
    <vType id="sport" minGap="2.00" maxSpeed="40.00" vClass="passenger" accel="5" decel="4.5" sigma="0.5"/>
    <vType id="truck" minGap="10.00" maxSpeed="20.00" vClass="truck" accel="0.8" decel="6" sigma="0.5"/>
    <flow id="flow_1_1" type="truck" begin="0.00" departLane="first" arrivalLane="current" departPos="10.00" from="-gneE101" to="-gneE101.304" end="50.00" number="30"/>
    <flow id="flow_8" type="sport" begin="0.00" departLane="2" departPos="10.00" arrivalLane="2" from="-gneE101" to="-gneE101.304" end="50.00" number="5000"/>
</routes>
